STB32/Miguel/Leonardo_Contigencias_2a_Ordem.rel
CEPEL - Centro de Pesquisas de Energia Eletrica - ANAREDE V11.05.05

 Caso_Base_Leonardo_Confiabilidade_Segunda_Ordem                                 

 CONTINGENCIA  201  PRIORIDADE  2 Contigencia dupla de L1 e L2                  

 CIRCUITO da Barra   839 CASCAV-PR230  p/ Barra  1047 SOSORIO-230  Circ  1 (DESLIGAR)
 CIRCUITO da Barra   839 CASCAV-PR230  p/ Barra  2458 CASCOE-PR230 Circ  1 (DESLIGAR)

 RELATORIO DE CONVERGENCIA

 OPCOES ATIVADAS: QLIM CTAP NEWT MOCT MOCG MOCF RCVG RMON RILH 80CO CSCA

 X-----------X------X------X---------------X---------------X---------------X--X
    ITERACAO          FREQ.  ERRO MAX BARRA  ERRO MAX BARRA  ERRO MAX  CONV    
  FC  P  Q  V  M.O.   (Hz)       MW    NUM.     Mvar   NUM.  TENSAO %  NUM. FM 
 X--X--X--X--X------X------X---------X-----X---------X-----X---------X-----X--X

      1  1    1.0000 60.000     96.99  2458     35.15   839
      2  2    1.0000 60.000      0.41  2458      0.23  2458
 ................................................................




 CONVERGENCIA FINAL

 X-----------X------X------X---------------X---------------X---------------X
    ITERACAO          FREQ. ERRO MAX BARRA  ERRO MAX BARRA  ERRO MAX  CONV  
  FC  P  Q  V  M.O.   (Hz)      MW    NUM.     Mvar   NUM.  TENSAO %  NUM.  
 X--X--X--X--X------X------X---------X-----X---------X-----X---------X-----X

   0                             0.00     0      0.00     0
      2  2  0 1.0000 60.000      0.00  2458      0.00  2458     0.000     0
CEPEL - Centro de Pesquisas de Energia Eletrica - ANAREDE V11.05.05

 Caso_Base_Leonardo_Confiabilidade_Segunda_Ordem                                 

 CONTINGENCIA  201  PRIORIDADE  2 Contigencia dupla de L1 e L2                  

 CIRCUITO da Barra   839 CASCAV-PR230  p/ Barra  1047 SOSORIO-230  Circ  1 (DESLIGAR)
 CIRCUITO da Barra   839 CASCAV-PR230  p/ Barra  2458 CASCOE-PR230 Circ  1 (DESLIGAR)

 RELATORIO DE GERADOR * AREA   1 *                                  525

 X------------X------X-----------------------X----X------X-------X
     BARRA     TENSAO         GERACAO         LIM. PARTIC  BARRA
  NUM.    TIPO   MOD     MIN     MW      MAX   MW    GER  CONTROL
      NOME       ANG     MIN    Mvar     MAX  Mvar  EQUIV   MVA
 X------------X------X-------X-------X-------X----X------X-------X

    856      1  1.018     0.0   705.6  1260.0         0.0     856
  SEGRED-PR525   16.6  -465.0   -86.4   465.0         0.0   710.9
    897      1  1.015     0.0   693.6  1240.0         0.0     897
  SCAXIA-PR525   25.1  -465.0     1.2   465.0         0.0   693.6
    933      1  1.012     0.0   934.4  1676.0         0.0     933
  AREIA--PR525   13.0  -800.0  -185.8   800.0         0.0   952.7
    955      2  1.010   -66.5   843.3  1760.0         0.0     955
  CNOVOS-SC525   -0.0  -450.0  -237.2   450.0         0.0   876.0
    995      1  1.020     0.0   809.6  1450.0         0.0     995
  ITA-----0425    3.3  -580.0   -38.4   580.0         0.0   810.5
   1030      1  1.016     0.0   631.9  1140.0         0.0    1030
  MACHAD-SC525    1.6  -570.0    -8.0   570.0         0.0   632.0
   1060      1  1.023     0.0   792.0  1420.0         0.0    1060
  SSANTI-PR525   17.8  -525.0    54.9   525.0         0.0   793.9




 RELATORIO DE GERADOR * AREA   2 *                                  230

 X------------X------X-----------------------X----X------X-------X
     BARRA     TENSAO         GERACAO         LIM. PARTIC  BARRA
  NUM.    TIPO   MOD     MIN     MW      MAX   MW    GER  CONTROL
      NOME       ANG     MIN    Mvar     MAX  Mvar  EQUIV   MVA
 X------------X------X-------X-------X-------X----X------X-------X

    963      1  1.000     0.0   129.6   360.0         0.0     963
  MCLARO-RS230   -7.6   -80.0   -65.6    80.0         0.0   145.3
   1010      1  1.020     0.0   395.2 99999.0         0.0    1010
  JLAC-B-SC230   -5.3  -220.0    29.8   220.0         0.0   396.3
   1041      1  1.000     0.0   128.8   226.0         0.0    1041
  PFUNDO-RS230    2.2  -130.0    16.7   130.0         0.0   129.9
   1047      1  1.020     0.0   617.6  1078.0         0.0    1047
  SOSORIO-230    21.7  -450.0    -8.3   450.0         0.0   617.7
CEPEL - Centro de Pesquisas de Energia Eletrica - ANAREDE V11.05.05

 Caso_Base_Leonardo_Confiabilidade_Segunda_Ordem                                 

 CONTINGENCIA  201  PRIORIDADE  2 Contigencia dupla de L1 e L2                  

 CIRCUITO da Barra   839 CASCAV-PR230  p/ Barra  1047 SOSORIO-230  Circ  1 (DESLIGAR)
 CIRCUITO da Barra   839 CASCAV-PR230  p/ Barra  2458 CASCOE-PR230 Circ  1 (DESLIGAR)

 RELATORIO DE TOTAIS DE AREA

 X----X--------X--------X--------X--------X--------X--------X--------X--------X
  AREA  GERACAO  INJ EQV   CARGA   ELO CC    SHUNT   EXPORT   IMPORT   PERDAS
  NUM.    MW/      MW/      MW/      MW/     Mvar/     MW/      MW/      MW/
         Mvar     Mvar     Mvar     Mvar     EQUIV    Mvar     Mvar     Mvar
 X----X--------X--------X--------X--------X--------X--------X--------X--------X

     1   5410.4      0.0   3100.0      0.0      0.0   5466.2   3345.4    189.7
         -499.8      0.0    425.4      0.0      0.0   1499.1    142.6  -2281.7

     2   1271.2      0.0   7800.0      0.0     99.6      0.0   6604.4     75.6
          -27.4      0.0   1914.4      0.0      0.0    142.6   1259.1    116.9

     3      0.0      0.0  -4500.1      0.0      0.0   5129.1    645.4     16.4
            0.0      0.0   1111.5      0.0      0.0    359.6    599.6   -871.5

 TOTAL   6681.6      0.0   6399.9      0.0     99.6  10595.2  10595.2    281.7
         -527.2      0.0   3451.3      0.0      0.0   2001.3   2001.3  -3036.3


 MONITORACAO DE TENSAO

Não foram encontradas violações de tensao entre as barras monitoradas.


 MONITORACAO DE FLUXOS CORRIGIDOS PELA TENSAO - MFCT

 Não foram encontradas violações de fluxo entre os circuitos monitorados
CEPEL - Centro de Pesquisas de Energia Eletrica - ANAREDE V11.05.05

 Caso_Base_Leonardo_Confiabilidade_Segunda_Ordem                                 

 CONTINGENCIA  202  PRIORIDADE  2 Contigencia dupla de L1 e L3                  

 CIRCUITO da Barra   839 CASCAV-PR230  p/ Barra  1047 SOSORIO-230  Circ  1 (DESLIGAR)
 CIRCUITO da Barra   856 SEGRED-PR525  p/ Barra   933 AREIA--PR525 Circ  1 (DESLIGAR)

 RELATORIO DE CONVERGENCIA

 OPCOES ATIVADAS: QLIM CTAP NEWT MOCT MOCG MOCF RCVG RMON RILH 80CO CSCA

 X-----------X------X------X---------------X---------------X---------------X--X
    ITERACAO          FREQ.  ERRO MAX BARRA  ERRO MAX BARRA  ERRO MAX  CONV    
  FC  P  Q  V  M.O.   (Hz)       MW    NUM.     Mvar   NUM.  TENSAO %  NUM. FM 
 X--X--X--X--X------X------X---------X-----X---------X-----X---------X-----X--X

      1  1    1.0000 60.000    997.63   856     39.02   839
      2  2    1.0000 60.000      6.11   933     35.22   999
      3  3    1.0000 60.000      0.01   933      0.01   999
      4  4    1.0000 60.000      0.04  1015      1.19   959
 ................................................................




 CONVERGENCIA FINAL

 X-----------X------X------X---------------X---------------X---------------X
    ITERACAO          FREQ. ERRO MAX BARRA  ERRO MAX BARRA  ERRO MAX  CONV  
  FC  P  Q  V  M.O.   (Hz)      MW    NUM.     Mvar   NUM.  TENSAO %  NUM.  
 X--X--X--X--X------X------X---------X-----X---------X-----X---------X-----X

   0                             0.00     0      0.00     0
      4  4  0 1.0000 60.000      0.00   959      0.00   960     0.000     0
CEPEL - Centro de Pesquisas de Energia Eletrica - ANAREDE V11.05.05

 Caso_Base_Leonardo_Confiabilidade_Segunda_Ordem                                 

 CONTINGENCIA  202  PRIORIDADE  2 Contigencia dupla de L1 e L3                  

 CIRCUITO da Barra   839 CASCAV-PR230  p/ Barra  1047 SOSORIO-230  Circ  1 (DESLIGAR)
 CIRCUITO da Barra   856 SEGRED-PR525  p/ Barra   933 AREIA--PR525 Circ  1 (DESLIGAR)

 RELATORIO DE SHUNT COM CHAVEAMENTO AUTOMATICO

 X------------------X------------------X-----X--------------------X----X------X--X
     BARRA SHUNT      BARRA CONTROLADA         TENSAO CONTROLADA       SHUNT     
  NUM.      NOME     NUM.      NOME       TP  MINIMA ATUAL  MAXIMA CONT  Mvar  ST
 X-----X------------X-----X------------X-----X------X------X------X----X------X--X

    955 CNOVOS-SC525   955 CNOVOS-SC525 DISC   0.970  1.010  1.040 CENT   -0.0  
CEPEL - Centro de Pesquisas de Energia Eletrica - ANAREDE V11.05.05

 Caso_Base_Leonardo_Confiabilidade_Segunda_Ordem                                 

 CONTINGENCIA  202  PRIORIDADE  2 Contigencia dupla de L1 e L3                  

 CIRCUITO da Barra   839 CASCAV-PR230  p/ Barra  1047 SOSORIO-230  Circ  1 (DESLIGAR)
 CIRCUITO da Barra   856 SEGRED-PR525  p/ Barra   933 AREIA--PR525 Circ  1 (DESLIGAR)

 RELATORIO DE GERADOR * AREA   1 *                                  525

 X------------X------X-----------------------X----X------X-------X
     BARRA     TENSAO         GERACAO         LIM. PARTIC  BARRA
  NUM.    TIPO   MOD     MIN     MW      MAX   MW    GER  CONTROL
      NOME       ANG     MIN    Mvar     MAX  Mvar  EQUIV   MVA
 X------------X------X-------X-------X-------X----X------X-------X

    856      1  1.018     0.0   705.6  1260.0         0.0     856
  SEGRED-PR525   25.1  -465.0  -150.6   465.0         0.0   721.5
    897      1  1.015     0.0   693.6  1240.0         0.0     897
  SCAXIA-PR525   28.9  -465.0    -0.6   465.0         0.0   693.6
    933      1  1.012     0.0   934.4  1676.0         0.0     933
  AREIA--PR525    9.5  -800.0   -73.7   800.0         0.0   937.3
    955      2  1.010   -66.5   867.3  1760.0         0.0     955
  CNOVOS-SC525   -0.0  -450.0  -304.3   450.0         0.0   919.1
    995      1  1.020     0.0   809.6  1450.0         0.0     995
  ITA-----0425    5.2  -580.0   138.6   580.0         0.0   821.4
   1030      1  1.016     0.0   631.9  1140.0         0.0    1030
  MACHAD-SC525    2.0  -570.0    10.2   570.0         0.0   632.0
   1060      1  1.023     0.0   792.0  1420.0         0.0    1060
  SSANTI-PR525   22.4  -525.0   205.5   525.0         0.0   818.2




 RELATORIO DE GERADOR * AREA   2 *                                  230

 X------------X------X-----------------------X----X------X-------X
     BARRA     TENSAO         GERACAO         LIM. PARTIC  BARRA
  NUM.    TIPO   MOD     MIN     MW      MAX   MW    GER  CONTROL
      NOME       ANG     MIN    Mvar     MAX  Mvar  EQUIV   MVA
 X------------X------X-------X-------X-------X----X------X-------X

    963      1  1.000     0.0   129.6   360.0         0.0     963
  MCLARO-RS230   -6.8   -80.0   -65.4    80.0         0.0   145.1
   1010      1  1.020     0.0   395.2 99999.0         0.0    1010
  JLAC-B-SC230   -5.8  -220.0    25.7   220.0         0.0   396.0
   1041      1  1.000     0.0   128.8   226.0         0.0    1041
  PFUNDO-RS230    2.7  -130.0    14.8   130.0         0.0   129.6
   1047      1  1.020     0.0   617.6  1078.0         0.0    1047
  SOSORIO-230    22.0  -450.0    11.0   450.0         0.0   617.7
CEPEL - Centro de Pesquisas de Energia Eletrica - ANAREDE V11.05.05

 Caso_Base_Leonardo_Confiabilidade_Segunda_Ordem                                 

 CONTINGENCIA  202  PRIORIDADE  2 Contigencia dupla de L1 e L3                  

 CIRCUITO da Barra   839 CASCAV-PR230  p/ Barra  1047 SOSORIO-230  Circ  1 (DESLIGAR)
 CIRCUITO da Barra   856 SEGRED-PR525  p/ Barra   933 AREIA--PR525 Circ  1 (DESLIGAR)

 RELATORIO DE TOTAIS DE AREA

 X----X--------X--------X--------X--------X--------X--------X--------X--------X
  AREA  GERACAO  INJ EQV   CARGA   ELO CC    SHUNT   EXPORT   IMPORT   PERDAS
  NUM.    MW/      MW/      MW/      MW/     Mvar/     MW/      MW/      MW/
         Mvar     Mvar     Mvar     Mvar     EQUIV    Mvar     Mvar     Mvar
 X----X--------X--------X--------X--------X--------X--------X--------X--------X

     1   5434.4      0.0   3100.0      0.0      0.0   5330.8   3191.1    194.8
         -174.8      0.0    425.4      0.0      0.0   1679.6    141.7  -2138.1

     2   1271.2      0.0   7800.0      0.0     99.7      0.0   6608.7     79.9
          -13.9      0.0   1914.4      0.0      0.0    141.7   1264.6    140.8

     3      0.0      0.0  -4500.0      0.0      0.0   5046.6    577.6     30.9
            0.0      0.0   1111.5      0.0      0.0    356.7    771.6   -696.6

 TOTAL   6705.6      0.0   6400.0      0.0     99.7  10377.4  10377.4    305.6
         -188.8      0.0   3451.3      0.0      0.0   2177.9   2177.9  -2693.9


 MONITORACAO DE TENSAO

Não foram encontradas violações de tensao entre as barras monitoradas.


 MONITORACAO DE FLUXOS CORRIGIDOS PELA TENSAO - MFCT

 Não foram encontradas violações de fluxo entre os circuitos monitorados
CEPEL - Centro de Pesquisas de Energia Eletrica - ANAREDE V11.05.05

 Caso_Base_Leonardo_Confiabilidade_Segunda_Ordem                                 

 CONTINGENCIA  203  PRIORIDADE  2 Contigencia dupla de L1 e L4                  

 CIRCUITO da Barra   839 CASCAV-PR230  p/ Barra  1047 SOSORIO-230  Circ  1 (DESLIGAR)
 CIRCUITO da Barra   856 SEGRED-PR525  p/ Barra  1060 SSANTI-PR525 Circ  1 (DESLIGAR)

 RELATORIO DE CONVERGENCIA

 OPCOES ATIVADAS: QLIM CTAP NEWT MOCT MOCG MOCF RCVG RMON RILH 80CO CSCA

 X-----------X------X------X---------------X---------------X---------------X--X
    ITERACAO          FREQ.  ERRO MAX BARRA  ERRO MAX BARRA  ERRO MAX  CONV    
  FC  P  Q  V  M.O.   (Hz)       MW    NUM.     Mvar   NUM.  TENSAO %  NUM. FM 
 X--X--X--X--X------X------X---------X-----X---------X-----X---------X-----X--X

      1  1    1.0000 60.000    292.45  1060     39.02   839
      2  2    1.0000 60.000      0.90   933      3.19   999
      3  3    1.0000 60.000      0.00   933      0.00   999
 ................................................................




 CONVERGENCIA FINAL

 X-----------X------X------X---------------X---------------X---------------X
    ITERACAO          FREQ. ERRO MAX BARRA  ERRO MAX BARRA  ERRO MAX  CONV  
  FC  P  Q  V  M.O.   (Hz)      MW    NUM.     Mvar   NUM.  TENSAO %  NUM.  
 X--X--X--X--X------X------X---------X-----X---------X-----X---------X-----X

   0                             0.00     0      0.00     0
      3  3  0 1.0000 60.000      0.00   895      0.00   895     0.000     0
CEPEL - Centro de Pesquisas de Energia Eletrica - ANAREDE V11.05.05

 Caso_Base_Leonardo_Confiabilidade_Segunda_Ordem                                 

 CONTINGENCIA  203  PRIORIDADE  2 Contigencia dupla de L1 e L4                  

 CIRCUITO da Barra   839 CASCAV-PR230  p/ Barra  1047 SOSORIO-230  Circ  1 (DESLIGAR)
 CIRCUITO da Barra   856 SEGRED-PR525  p/ Barra  1060 SSANTI-PR525 Circ  1 (DESLIGAR)

 RELATORIO DE GERADOR * AREA   1 *                                  525

 X------------X------X-----------------------X----X------X-------X
     BARRA     TENSAO         GERACAO         LIM. PARTIC  BARRA
  NUM.    TIPO   MOD     MIN     MW      MAX   MW    GER  CONTROL
      NOME       ANG     MIN    Mvar     MAX  Mvar  EQUIV   MVA
 X------------X------X-------X-------X-------X----X------X-------X

    856      1  1.018     0.0   705.6  1260.0         0.0     856
  SEGRED-PR525   14.5  -465.0    13.5   465.0         0.0   705.7
    897      1  1.015     0.0   693.6  1240.0         0.0     897
  SCAXIA-PR525   26.2  -465.0    -2.8   465.0         0.0   693.6
    933      1  1.012     0.0   934.4  1676.0         0.0     933
  AREIA--PR525   12.0  -800.0  -209.6   800.0         0.0   957.6
    955      2  1.010   -66.5   846.0  1760.0         0.0     955
  CNOVOS-SC525   -0.0  -450.0  -262.0   450.0         0.0   885.6
    995      1  1.020     0.0   809.6  1450.0         0.0     995
  ITA-----0425    3.8  -580.0    10.5   580.0         0.0   809.7
   1030      1  1.016     0.0   631.9  1140.0         0.0    1030
  MACHAD-SC525    1.7  -570.0    -3.6   570.0         0.0   631.9
   1060      1  1.023     0.0   792.0  1420.0         0.0    1060
  SSANTI-PR525   19.1  -525.0    55.0   525.0         0.0   793.9




 RELATORIO DE GERADOR * AREA   2 *                                  230

 X------------X------X-----------------------X----X------X-------X
     BARRA     TENSAO         GERACAO         LIM. PARTIC  BARRA
  NUM.    TIPO   MOD     MIN     MW      MAX   MW    GER  CONTROL
      NOME       ANG     MIN    Mvar     MAX  Mvar  EQUIV   MVA
 X------------X------X-------X-------X-------X----X------X-------X

    963      1  1.000     0.0   129.6   360.0         0.0     963
  MCLARO-RS230   -7.3   -80.0   -65.5    80.0         0.0   145.2
   1010      1  1.020     0.0   395.2 99999.0         0.0    1010
  JLAC-B-SC230   -5.4  -220.0    28.4   220.0         0.0   396.2
   1041      1  1.000     0.0   128.8   226.0         0.0    1041
  PFUNDO-RS230    2.4  -130.0    16.4   130.0         0.0   129.8
   1047      1  1.020     0.0   617.6  1078.0         0.0    1047
  SOSORIO-230    21.9  -450.0    -4.4   450.0         0.0   617.6
CEPEL - Centro de Pesquisas de Energia Eletrica - ANAREDE V11.05.05

 Caso_Base_Leonardo_Confiabilidade_Segunda_Ordem                                 

 CONTINGENCIA  203  PRIORIDADE  2 Contigencia dupla de L1 e L4                  

 CIRCUITO da Barra   839 CASCAV-PR230  p/ Barra  1047 SOSORIO-230  Circ  1 (DESLIGAR)
 CIRCUITO da Barra   856 SEGRED-PR525  p/ Barra  1060 SSANTI-PR525 Circ  1 (DESLIGAR)

 RELATORIO DE TOTAIS DE AREA

 X----X--------X--------X--------X--------X--------X--------X--------X--------X
  AREA  GERACAO  INJ EQV   CARGA   ELO CC    SHUNT   EXPORT   IMPORT   PERDAS
  NUM.    MW/      MW/      MW/      MW/     Mvar/     MW/      MW/      MW/
         Mvar     Mvar     Mvar     Mvar     EQUIV    Mvar     Mvar     Mvar
 X----X--------X--------X--------X--------X--------X--------X--------X--------X

     1   5413.1      0.0   3100.0      0.0      0.0   5424.3   3299.3    188.1
         -398.9      0.0    425.4      0.0      0.0   1533.7    142.2  -2215.7

     2   1271.2      0.0   7800.0      0.0     99.6      0.0   6605.5     76.7
          -25.1      0.0   1914.4      0.0      0.0    142.2   1258.1    120.4

     3      0.0      0.0  -4500.0      0.0      0.0   5106.3    625.8     19.6
            0.0      0.0   1111.5      0.0      0.0    357.4    632.9   -835.9

 TOTAL   6684.3      0.0   6400.0      0.0     99.6  10530.6  10530.6    284.3
         -424.0      0.0   3451.3      0.0      0.0   2033.2   2033.2  -2931.3


 MONITORACAO DE TENSAO

Não foram encontradas violações de tensao entre as barras monitoradas.


 MONITORACAO DE FLUXOS CORRIGIDOS PELA TENSAO - MFCT

 Não foram encontradas violações de fluxo entre os circuitos monitorados
CEPEL - Centro de Pesquisas de Energia Eletrica - ANAREDE V11.05.05

 Caso_Base_Leonardo_Confiabilidade_Segunda_Ordem                                 

 CONTINGENCIA  204  PRIORIDADE  2 Contigencia dupla de L1 e L5                  

 CIRCUITO da Barra   839 CASCAV-PR230  p/ Barra  1047 SOSORIO-230  Circ  1 (DESLIGAR)
 CIRCUITO da Barra   933 AREIA--PR525  p/ Barra   895 BATEIA-PR525 Circ  1 (DESLIGAR)

 RELATORIO DE CONVERGENCIA

 OPCOES ATIVADAS: QLIM CTAP NEWT MOCT MOCG MOCF RCVG RMON RILH 80CO CSCA

 X-----------X------X------X---------------X---------------X---------------X--X
    ITERACAO          FREQ.  ERRO MAX BARRA  ERRO MAX BARRA  ERRO MAX  CONV    
  FC  P  Q  V  M.O.   (Hz)       MW    NUM.     Mvar   NUM.  TENSAO %  NUM. FM 
 X--X--X--X--X------X------X---------X-----X---------X-----X---------X-----X--X

      1  1    1.0000 60.000    653.73   933    120.51   895
      2  2    1.0000 60.000     14.93   933     25.95   959
      3  3    1.0000 60.000      0.23   895      0.03   939
      4  4    1.0000 60.000      3.30  1015     50.23   895
      5  5    1.0000 60.000      9.44   895     11.28   814
      6  6    1.0000 60.000      0.08   895      0.04   814
      7  7    1.0000 60.000      0.00   814     13.98  -814
 ................................................................




 CONVERGENCIA FINAL

 X-----------X------X------X---------------X---------------X---------------X
    ITERACAO          FREQ. ERRO MAX BARRA  ERRO MAX BARRA  ERRO MAX  CONV  
  FC  P  Q  V  M.O.   (Hz)      MW    NUM.     Mvar   NUM.  TENSAO %  NUM.  
 X--X--X--X--X------X------X---------X-----X---------X-----X---------X-----X

   0                             0.00     0      0.00     0
      7  7  0 1.0000 60.000      0.05   895      0.05   814     0.000     0
CEPEL - Centro de Pesquisas de Energia Eletrica - ANAREDE V11.05.05

 Caso_Base_Leonardo_Confiabilidade_Segunda_Ordem                                 

 CONTINGENCIA  204  PRIORIDADE  2 Contigencia dupla de L1 e L5                  

 CIRCUITO da Barra   839 CASCAV-PR230  p/ Barra  1047 SOSORIO-230  Circ  1 (DESLIGAR)
 CIRCUITO da Barra   933 AREIA--PR525  p/ Barra   895 BATEIA-PR525 Circ  1 (DESLIGAR)

 RELATORIO DE SHUNT COM CHAVEAMENTO AUTOMATICO

 X------------------X------------------X-----X--------------------X----X------X--X
     BARRA SHUNT      BARRA CONTROLADA         TENSAO CONTROLADA       SHUNT     
  NUM.      NOME     NUM.      NOME       TP  MINIMA ATUAL  MAXIMA CONT  Mvar  ST
 X-----X------------X-----X------------X-----X------X------X------X----X------X--X

    814 BATEIAS-230    895 BATEIA-PR525 DISC   0.960  0.984  1.020 CENT  150.0  
    955 CNOVOS-SC525   955 CNOVOS-SC525 DISC   0.970  1.010  1.040 CENT   -0.0  
CEPEL - Centro de Pesquisas de Energia Eletrica - ANAREDE V11.05.05

 Caso_Base_Leonardo_Confiabilidade_Segunda_Ordem                                 

 CONTINGENCIA  204  PRIORIDADE  2 Contigencia dupla de L1 e L5                  

 CIRCUITO da Barra   839 CASCAV-PR230  p/ Barra  1047 SOSORIO-230  Circ  1 (DESLIGAR)
 CIRCUITO da Barra   933 AREIA--PR525  p/ Barra   895 BATEIA-PR525 Circ  1 (DESLIGAR)

 RELATORIO DE GERADOR * AREA   1 *                                  525

 X------------X------X-----------------------X----X------X-------X
     BARRA     TENSAO         GERACAO         LIM. PARTIC  BARRA
  NUM.    TIPO   MOD     MIN     MW      MAX   MW    GER  CONTROL
      NOME       ANG     MIN    Mvar     MAX  Mvar  EQUIV   MVA
 X------------X------X-------X-------X-------X----X------X-------X

    856      1  1.018     0.0   705.6  1260.0         0.0     856
  SEGRED-PR525   18.0  -465.0   -91.8   465.0         0.0   711.5
    897      1  1.015     0.0   693.6  1240.0         0.0     897
  SCAXIA-PR525   26.3  -465.0    -0.4   465.0         0.0   693.6
    933      1  1.012     0.0   934.4  1676.0         0.0     933
  AREIA--PR525   14.7  -800.0     3.3   800.0         0.0   934.4
    955      2  1.010   -66.5   858.2  1760.0         0.0     955
  CNOVOS-SC525   -0.0  -450.0  -127.5   450.0         0.0   867.7
    995      1  1.020     0.0   809.6  1450.0         0.0     995
  ITA-----0425    3.7  -580.0     1.0   580.0         0.0   809.6
   1030      1  1.016     0.0   631.9  1140.0         0.0    1030
  MACHAD-SC525    1.7  -570.0    -4.6   570.0         0.0   631.9
   1060      1  1.023     0.0   792.0  1420.0         0.0    1060
  SSANTI-PR525   18.9  -525.0    79.8   525.0         0.0   796.0




 RELATORIO DE GERADOR * AREA   2 *                                  230

 X------------X------X-----------------------X----X------X-------X
     BARRA     TENSAO         GERACAO         LIM. PARTIC  BARRA
  NUM.    TIPO   MOD     MIN     MW      MAX   MW    GER  CONTROL
      NOME       ANG     MIN    Mvar     MAX  Mvar  EQUIV   MVA
 X------------X------X-------X-------X-------X----X------X-------X

    963      1  1.000     0.0   129.6   360.0         0.0     963
  MCLARO-RS230   -7.3   -80.0   -64.0    80.0         0.0   144.5
   1010      1  1.020     0.0   395.2 99999.0         0.0    1010
  JLAC-B-SC230   -6.6  -220.0    29.7   220.0         0.0   396.3
   1041      1  1.000     0.0   128.8   226.0         0.0    1041
  PFUNDO-RS230    2.9  -130.0    20.5   130.0         0.0   130.4
   1047      1  1.020     0.0   617.6  1078.0         0.0    1047
  SOSORIO-230    22.9  -450.0    -5.5   450.0         0.0   617.6
CEPEL - Centro de Pesquisas de Energia Eletrica - ANAREDE V11.05.05

 Caso_Base_Leonardo_Confiabilidade_Segunda_Ordem                                 

 CONTINGENCIA  204  PRIORIDADE  2 Contigencia dupla de L1 e L5                  

 CIRCUITO da Barra   839 CASCAV-PR230  p/ Barra  1047 SOSORIO-230  Circ  1 (DESLIGAR)
 CIRCUITO da Barra   933 AREIA--PR525  p/ Barra   895 BATEIA-PR525 Circ  1 (DESLIGAR)

 RELATORIO DE TOTAIS DE AREA

 X----X--------X--------X--------X--------X--------X--------X--------X--------X
  AREA  GERACAO  INJ EQV   CARGA   ELO CC    SHUNT   EXPORT   IMPORT   PERDAS
  NUM.    MW/      MW/      MW/      MW/     Mvar/     MW/      MW/      MW/
         Mvar     Mvar     Mvar     Mvar     EQUIV    Mvar     Mvar     Mvar
 X----X--------X--------X--------X--------X--------X--------X--------X--------X

     1   5425.4      0.0   3100.0      0.0      0.0   4818.7   2696.4    203.0
         -140.1      0.0    425.4      0.0      0.0   1344.2    142.1  -1767.6

     2   1271.2      0.0   7800.0      0.0     99.5      0.0   6606.7     78.0
          -19.3      0.0   1914.4      0.0      0.0    197.4   1167.9    129.3

     3      0.0      0.0  -4500.1      0.0      0.0   4484.4      0.0     15.7
            0.0      0.0   1111.5      0.0      0.0    263.6    495.2   -879.8

 TOTAL   6696.6      0.0   6399.9      0.0     99.5   9303.1   9303.1    296.6
         -159.3      0.0   3451.3      0.0      0.0   1805.2   1805.2  -2518.1


 MONITORACAO DE TENSAO

Não foram encontradas violações de tensao entre as barras monitoradas.


 MONITORACAO DE FLUXOS CORRIGIDOS PELA TENSAO - MFCT

 Não foram encontradas violações de fluxo entre os circuitos monitorados
CEPEL - Centro de Pesquisas de Energia Eletrica - ANAREDE V11.05.05

 Caso_Base_Leonardo_Confiabilidade_Segunda_Ordem                                 

 CONTINGENCIA  205  PRIORIDADE  2 Contigencia dupla de L1 e L6                  

 CIRCUITO da Barra   839 CASCAV-PR230  p/ Barra  1047 SOSORIO-230  Circ  1 (DESLIGAR)
 CIRCUITO da Barra   933 AREIA--PR525  p/ Barra   955 CNOVOS-SC525 Circ  1 (DESLIGAR)

 RELATORIO DE CONVERGENCIA

 OPCOES ATIVADAS: QLIM CTAP NEWT MOCT MOCG MOCF RCVG RMON RILH 80CO CSCA

 X-----------X------X------X---------------X---------------X---------------X--X
    ITERACAO          FREQ.  ERRO MAX BARRA  ERRO MAX BARRA  ERRO MAX  CONV    
  FC  P  Q  V  M.O.   (Hz)       MW    NUM.     Mvar   NUM.  TENSAO %  NUM. FM 
 X--X--X--X--X------X------X---------X-----X---------X-----X---------X-----X--X

      1  1    1.0000 60.000   1125.63   933     39.02   839
      2  2    1.0000 60.000     10.66   938     17.23   938
      3  3    1.0000 60.000      0.24   895      0.03   895
      4  4    1.0000 60.000      1.88  1015     18.63   959
 ................................................................




 CONVERGENCIA FINAL

 X-----------X------X------X---------------X---------------X---------------X
    ITERACAO          FREQ. ERRO MAX BARRA  ERRO MAX BARRA  ERRO MAX  CONV  
  FC  P  Q  V  M.O.   (Hz)      MW    NUM.     Mvar   NUM.  TENSAO %  NUM.  
 X--X--X--X--X------X------X---------X-----X---------X-----X---------X-----X

   0                             0.00     0      0.00     0
      4  4  0 1.0000 60.000      0.00   814      0.01   960     0.000     0
CEPEL - Centro de Pesquisas de Energia Eletrica - ANAREDE V11.05.05

 Caso_Base_Leonardo_Confiabilidade_Segunda_Ordem                                 

 CONTINGENCIA  205  PRIORIDADE  2 Contigencia dupla de L1 e L6                  

 CIRCUITO da Barra   839 CASCAV-PR230  p/ Barra  1047 SOSORIO-230  Circ  1 (DESLIGAR)
 CIRCUITO da Barra   933 AREIA--PR525  p/ Barra   955 CNOVOS-SC525 Circ  1 (DESLIGAR)

 RELATORIO DE SHUNT COM CHAVEAMENTO AUTOMATICO

 X------------------X------------------X-----X--------------------X----X------X--X
     BARRA SHUNT      BARRA CONTROLADA         TENSAO CONTROLADA       SHUNT     
  NUM.      NOME     NUM.      NOME       TP  MINIMA ATUAL  MAXIMA CONT  Mvar  ST
 X-----X------------X-----X------------X-----X------X------X------X----X------X--X

    955 CNOVOS-SC525   955 CNOVOS-SC525 DISC   0.970  1.010  1.040 CENT   -0.0  
CEPEL - Centro de Pesquisas de Energia Eletrica - ANAREDE V11.05.05

 Caso_Base_Leonardo_Confiabilidade_Segunda_Ordem                                 

 CONTINGENCIA  205  PRIORIDADE  2 Contigencia dupla de L1 e L6                  

 CIRCUITO da Barra   839 CASCAV-PR230  p/ Barra  1047 SOSORIO-230  Circ  1 (DESLIGAR)
 CIRCUITO da Barra   933 AREIA--PR525  p/ Barra   955 CNOVOS-SC525 Circ  1 (DESLIGAR)

 RELATORIO DE GERADOR * AREA   1 *                                  525

 X------------X------X-----------------------X----X------X-------X
     BARRA     TENSAO         GERACAO         LIM. PARTIC  BARRA
  NUM.    TIPO   MOD     MIN     MW      MAX   MW    GER  CONTROL
      NOME       ANG     MIN    Mvar     MAX  Mvar  EQUIV   MVA
 X------------X------X-------X-------X-------X----X------X-------X

    856      1  1.018     0.0   705.6  1260.0         0.0     856
  SEGRED-PR525   25.6  -465.0  -108.2   465.0         0.0   713.9
    897      1  1.015     0.0   693.6  1240.0         0.0     897
  SCAXIA-PR525   32.7  -465.0     2.9   465.0         0.0   693.6
    933      1  1.012     0.0   934.4  1676.0         0.0     933
  AREIA--PR525   23.7  -800.0    28.4   800.0         0.0   934.8
    955      2  1.010   -66.5   892.3  1760.0         0.0     955
  CNOVOS-SC525    0.0  -450.0  -172.8   450.0         0.0   908.9
    995      1  1.020     0.0   809.6  1450.0         0.0     995
  ITA-----0425    6.3  -580.0   239.0   580.0         0.0   844.1
   1030      1  1.016     0.0   631.9  1140.0         0.0    1030
  MACHAD-SC525    2.3  -570.0    25.5   570.0         0.0   632.4
   1060      1  1.023     0.0   792.0  1420.0         0.0    1060
  SSANTI-PR525   25.0  -525.0   252.6   525.0         0.0   831.3




 RELATORIO DE GERADOR * AREA   2 *                                  230

...